NDPIS/Case3/WithDG/case3_WithDG_VLN_Node.Txt

LINE-GROUND and LINE-LINE VOLTAGES BY BUS & NODE

Bus       Node    VLN (kV)   Angle      pu     Base kV    Node-Node   VLL (kV)  Angle      pu

SOURCEBUS 1       6.5113 /_   -0.9   0.98929    11.400        1-2     11.278 /_   29.1   0.98929
   -      2       6.5113 /_ -120.9   0.98929    11.400        2-3     11.278 /_  -90.9   0.98929
   -      3       6.5113 /_  119.1   0.98929    11.400        3-1     11.278 /_  149.1   0.98929
2 ....... 1        6.437 /_   -1.3   0.97801    11.400        1-2     11.149 /_   28.7   0.97801
   -      2        6.437 /_ -121.3   0.97801    11.400        2-3     11.149 /_  -91.3   0.97801
   -      3        6.437 /_  118.7   0.97801    11.400        3-1     11.149 /_  148.7   0.97801
3 ....... 1       6.4022 /_   -1.6   0.97271    11.400        1-2     11.089 /_   28.4   0.97271
   -      2       6.4022 /_ -121.6   0.97271    11.400        2-3     11.089 /_  -91.6   0.97271
   -      3       6.4022 /_  118.4   0.97271    11.400        3-1     11.089 /_  148.4   0.97271
4 ....... 1       6.3817 /_   -1.9   0.96959    11.400        1-2     11.053 /_   28.1   0.96959
   -      2       6.3817 /_ -121.9   0.96959    11.400        2-3     11.053 /_  -91.9   0.96959
   -      3       6.3817 /_  118.1   0.96959    11.400        3-1     11.053 /_  148.1   0.96959
5 ....... 1       6.3752 /_   -1.9   0.96861    11.400        1-2     11.042 /_   28.1   0.96861
   -      2       6.3752 /_ -121.9   0.96861    11.400        2-3     11.042 /_  -91.9   0.96861
   -      3       6.3752 /_  118.1   0.96861    11.400        3-1     11.042 /_  148.1   0.96861
6 ....... 1       6.3356 /_   -2.6    0.9626    11.400        1-2     10.974 /_   27.4    0.9626
   -      2       6.3356 /_ -122.6    0.9626    11.400        2-3     10.974 /_  -92.6    0.9626
   -      3       6.3356 /_  117.4    0.9626    11.400        3-1     10.974 /_  147.4    0.9626
7 ....... 1       6.3541 /_   -2.5    0.9654    11.400        1-2     11.006 /_   27.5    0.9654
   -      2       6.3541 /_ -122.5    0.9654    11.400        2-3     11.006 /_  -92.5    0.9654
   -      3       6.3541 /_  117.5    0.9654    11.400        3-1     11.006 /_  147.5    0.9654
8 ....... 1       6.3521 /_   -2.5    0.9651    11.400        1-2     11.002 /_   27.5    0.9651
   -      2       6.3521 /_ -122.5    0.9651    11.400        2-3     11.002 /_  -92.5    0.9651
   -      3       6.3521 /_  117.5    0.9651    11.400        3-1     11.002 /_  147.5    0.9651
9 ....... 1       6.3576 /_   -2.3   0.96593    11.400        1-2     11.012 /_   27.7   0.96593
   -      2       6.3576 /_ -122.3   0.96593    11.400        2-3     11.012 /_  -92.3   0.96593
   -      3       6.3576 /_  117.7   0.96593    11.400        3-1     11.012 /_  147.7   0.96593
10 ...... 1       6.4075 /_   -2.1   0.97352    11.400        1-2     11.098 /_   27.9   0.97352
   -      2       6.4075 /_ -122.1   0.97352    11.400        2-3     11.098 /_  -92.1   0.97352
   -      3       6.4075 /_  117.9   0.97352    11.400        3-1     11.098 /_  147.9   0.97352
